* NGSPICE file created from multiplex.ext - technology: sky130A

* Black-box entry subcircuit for sky130_fd_sc_hd__decap_12 abstract view
.subckt sky130_fd_sc_hd__decap_12 VGND VNB VPB VPWR
.ends

* Black-box entry subcircuit for sky130_fd_sc_hd__fill_2 abstract view
.subckt sky130_fd_sc_hd__fill_2 VGND VNB VPB VPWR
.ends

* Black-box entry subcircuit for sky130_fd_sc_hd__tapvpwrvgnd_1 abstract view
.subckt sky130_fd_sc_hd__tapvpwrvgnd_1 VGND VPWR
.ends

* Black-box entry subcircuit for sky130_fd_sc_hd__decap_8 abstract view
.subckt sky130_fd_sc_hd__decap_8 VGND VNB VPB VPWR
.ends

* Black-box entry subcircuit for sky130_fd_sc_hd__decap_3 abstract view
.subckt sky130_fd_sc_hd__decap_3 VGND VNB VPB VPWR
.ends

* Black-box entry subcircuit for sky130_fd_sc_hd__decap_4 abstract view
.subckt sky130_fd_sc_hd__decap_4 VGND VNB VPB VPWR
.ends

* Black-box entry subcircuit for sky130_fd_sc_hd__fill_1 abstract view
.subckt sky130_fd_sc_hd__fill_1 VGND VNB VPB VPWR
.ends

* Black-box entry subcircuit for sky130_fd_sc_hd__decap_6 abstract view
.subckt sky130_fd_sc_hd__decap_6 VGND VNB VPB VPWR
.ends

* Black-box entry subcircuit for sky130_fd_sc_hd__a221o_1 abstract view
.subckt sky130_fd_sc_hd__a221o_1 A1 A2 B1 B2 C1 VGND VNB VPB VPWR X
.ends

* Black-box entry subcircuit for sky130_fd_sc_hd__a22o_2 abstract view
.subckt sky130_fd_sc_hd__a22o_2 A1 A2 B1 B2 VGND VNB VPB VPWR X
.ends

* Black-box entry subcircuit for sky130_fd_sc_hd__a22o_4 abstract view
.subckt sky130_fd_sc_hd__a22o_4 A1 A2 B1 B2 VGND VNB VPB VPWR X
.ends

* Black-box entry subcircuit for sky130_fd_sc_hd__clkbuf_2 abstract view
.subckt sky130_fd_sc_hd__clkbuf_2 A VGND VNB VPB VPWR X
.ends

* Black-box entry subcircuit for sky130_fd_sc_hd__diode_2 abstract view
.subckt sky130_fd_sc_hd__diode_2 DIODE VGND VNB VPB VPWR
.ends

* Black-box entry subcircuit for sky130_fd_sc_hd__a221o_2 abstract view
.subckt sky130_fd_sc_hd__a221o_2 A1 A2 B1 B2 C1 VGND VNB VPB VPWR X
.ends

* Black-box entry subcircuit for sky130_fd_sc_hd__a2111o_4 abstract view
.subckt sky130_fd_sc_hd__a2111o_4 A1 A2 B1 C1 D1 VGND VNB VPB VPWR X
.ends

* Black-box entry subcircuit for sky130_fd_sc_hd__buf_8 abstract view
.subckt sky130_fd_sc_hd__buf_8 A VGND VNB VPB VPWR X
.ends

* Black-box entry subcircuit for sky130_fd_sc_hd__clkbuf_4 abstract view
.subckt sky130_fd_sc_hd__clkbuf_4 A VGND VNB VPB VPWR X
.ends

* Black-box entry subcircuit for sky130_fd_sc_hd__buf_4 abstract view
.subckt sky130_fd_sc_hd__buf_4 A VGND VNB VPB VPWR X
.ends

* Black-box entry subcircuit for sky130_fd_sc_hd__buf_1 abstract view
.subckt sky130_fd_sc_hd__buf_1 A VGND VNB VPB VPWR X
.ends

* Black-box entry subcircuit for sky130_fd_sc_hd__buf_2 abstract view
.subckt sky130_fd_sc_hd__buf_2 A VGND VNB VPB VPWR X
.ends

* Black-box entry subcircuit for sky130_fd_sc_hd__conb_1 abstract view
.subckt sky130_fd_sc_hd__conb_1 VGND VNB VPB VPWR HI LO
.ends

* Black-box entry subcircuit for sky130_fd_sc_hd__buf_6 abstract view
.subckt sky130_fd_sc_hd__buf_6 A VGND VNB VPB VPWR X
.ends

* Black-box entry subcircuit for sky130_fd_sc_hd__a221o_4 abstract view
.subckt sky130_fd_sc_hd__a221o_4 A1 A2 B1 B2 C1 VGND VNB VPB VPWR X
.ends

* Black-box entry subcircuit for sky130_fd_sc_hd__a2111o_2 abstract view
.subckt sky130_fd_sc_hd__a2111o_2 A1 A2 B1 C1 D1 VGND VNB VPB VPWR X
.ends

* Black-box entry subcircuit for sky130_fd_sc_hd__clkbuf_8 abstract view
.subckt sky130_fd_sc_hd__clkbuf_8 A VGND VNB VPB VPWR X
.ends

* Black-box entry subcircuit for sky130_fd_sc_hd__a22o_1 abstract view
.subckt sky130_fd_sc_hd__a22o_1 A1 A2 B1 B2 VGND VNB VPB VPWR X
.ends

* Black-box entry subcircuit for sky130_fd_sc_hd__dlymetal6s2s_1 abstract view
.subckt sky130_fd_sc_hd__dlymetal6s2s_1 A VGND VNB VPB VPWR X
.ends

* Black-box entry subcircuit for sky130_fd_sc_hd__or4_4 abstract view
.subckt sky130_fd_sc_hd__or4_4 A B C D VGND VNB VPB VPWR X
.ends

* Black-box entry subcircuit for sky130_fd_sc_hd__nor3_4 abstract view
.subckt sky130_fd_sc_hd__nor3_4 A B C VGND VNB VPB VPWR Y
.ends

* Black-box entry subcircuit for sky130_fd_sc_hd__or2_4 abstract view
.subckt sky130_fd_sc_hd__or2_4 A B VGND VNB VPB VPWR X
.ends

* Black-box entry subcircuit for sky130_fd_sc_hd__clkinv_8 abstract view
.subckt sky130_fd_sc_hd__clkinv_8 A VGND VNB VPB VPWR Y
.ends

* Black-box entry subcircuit for sky130_fd_sc_hd__nand2_4 abstract view
.subckt sky130_fd_sc_hd__nand2_4 A B VGND VNB VPB VPWR Y
.ends

* Black-box entry subcircuit for sky130_fd_sc_hd__or2_2 abstract view
.subckt sky130_fd_sc_hd__or2_2 A B VGND VNB VPB VPWR X
.ends

* Black-box entry subcircuit for sky130_fd_sc_hd__clkbuf_1 abstract view
.subckt sky130_fd_sc_hd__clkbuf_1 A VGND VNB VPB VPWR X
.ends

* Black-box entry subcircuit for sky130_fd_sc_hd__or2_1 abstract view
.subckt sky130_fd_sc_hd__or2_1 A B VGND VNB VPB VPWR X
.ends

* Black-box entry subcircuit for sky130_fd_sc_hd__or3_4 abstract view
.subckt sky130_fd_sc_hd__or3_4 A B C VGND VNB VPB VPWR X
.ends

* Black-box entry subcircuit for sky130_fd_sc_hd__clkinv_4 abstract view
.subckt sky130_fd_sc_hd__clkinv_4 A VGND VNB VPB VPWR Y
.ends

* Black-box entry subcircuit for sky130_fd_sc_hd__or4b_4 abstract view
.subckt sky130_fd_sc_hd__or4b_4 A B C D_N VGND VNB VPB VPWR X
.ends

.subckt multiplex io_in[0] io_in[10] io_in[11] io_in[12] io_in[13] io_in[14] io_in[15]
+ io_in[16] io_in[17] io_in[18] io_in[19] io_in[1] io_in[20] io_in[21] io_in[22] io_in[23]
+ io_in[24] io_in[25] io_in[26] io_in[27] io_in[28] io_in[29] io_in[2] io_in[30] io_in[31]
+ io_in[32] io_in[33] io_in[34] io_in[35] io_in[36] io_in[37] io_in[3] io_in[4] io_in[5]
+ io_in[6] io_in[7] io_in[8] io_in[9] io_oeb[0] io_oeb[10] io_oeb[11] io_oeb[12] io_oeb[13]
+ io_oeb[14] io_oeb[15] io_oeb[16] io_oeb[17] io_oeb[18] io_oeb[19] io_oeb[1] io_oeb[20]
+ io_oeb[21] io_oeb[22] io_oeb[23] io_oeb[24] io_oeb[25] io_oeb[26] io_oeb[27] io_oeb[28]
+ io_oeb[29] io_oeb[2] io_oeb[30] io_oeb[31] io_oeb[32] io_oeb[33] io_oeb[34] io_oeb[35]
+ io_oeb[36] io_oeb[37] io_oeb[3] io_oeb[4] io_oeb[5] io_oeb[6] io_oeb[7] io_oeb[8]
+ io_oeb[9] io_out[0] io_out[10] io_out[11] io_out[12] io_out[13] io_out[14] io_out[15]
+ io_out[16] io_out[17] io_out[18] io_out[19] io_out[1] io_out[20] io_out[21] io_out[22]
+ io_out[23] io_out[24] io_out[25] io_out[26] io_out[27] io_out[28] io_out[29] io_out[2]
+ io_out[30] io_out[31] io_out[32] io_out[33] io_out[34] io_out[35] io_out[36] io_out[37]
+ io_out[3] io_out[4] io_out[5] io_out[6] io_out[7] io_out[8] io_out[9] irq[0] irq[1]
+ irq[2] la_data_in[0] la_data_in[10] la_data_in[1] la_data_in[2] la_data_in[3] la_data_in[4]
+ la_data_in[5] la_data_in[6] la_data_in[7] la_data_in[8] la_data_in[9] la_data_out[0]
+ la_data_out[100] la_data_out[101] la_data_out[102] la_data_out[103] la_data_out[104]
+ la_data_out[105] la_data_out[106] la_data_out[107] la_data_out[108] la_data_out[109]
+ la_data_out[10] la_data_out[110] la_data_out[111] la_data_out[112] la_data_out[113]
+ la_data_out[114] la_data_out[115] la_data_out[116] la_data_out[117] la_data_out[118]
+ la_data_out[119] la_data_out[11] la_data_out[120] la_data_out[121] la_data_out[122]
+ la_data_out[123] la_data_out[124] la_data_out[125] la_data_out[126] la_data_out[127]
+ la_data_out[12] la_data_out[13] la_data_out[14] la_data_out[15] la_data_out[16]
+ la_data_out[17] la_data_out[18] la_data_out[19] la_data_out[1] la_data_out[20] la_data_out[21]
+ la_data_out[22] la_data_out[23] la_data_out[24] la_data_out[25] la_data_out[26]
+ la_data_out[27] la_data_out[28] la_data_out[29] la_data_out[2] la_data_out[30] la_data_out[31]
+ la_data_out[32] la_data_out[33] la_data_out[34] la_data_out[35] la_data_out[36]
+ la_data_out[37] la_data_out[38] la_data_out[39] la_data_out[3] la_data_out[40] la_data_out[41]
+ la_data_out[42] la_data_out[43] la_data_out[44] la_data_out[45] la_data_out[46]
+ la_data_out[47] la_data_out[48] la_data_out[49] la_data_out[4] la_data_out[50] la_data_out[51]
+ la_data_out[52] la_data_out[53] la_data_out[54] la_data_out[55] la_data_out[56]
+ la_data_out[57] la_data_out[58] la_data_out[59] la_data_out[5] la_data_out[60] la_data_out[61]
+ la_data_out[62] la_data_out[63] la_data_out[64] la_data_out[65] la_data_out[66]
+ la_data_out[67] la_data_out[68] la_data_out[69] la_data_out[6] la_data_out[70] la_data_out[71]
+ la_data_out[72] la_data_out[73] la_data_out[74] la_data_out[75] la_data_out[76]
+ la_data_out[77] la_data_out[78] la_data_out[79] la_data_out[7] la_data_out[80] la_data_out[81]
+ la_data_out[82] la_data_out[83] la_data_out[84] la_data_out[85] la_data_out[86]
+ la_data_out[87] la_data_out[88] la_data_out[89] la_data_out[8] la_data_out[90] la_data_out[91]
+ la_data_out[92] la_data_out[93] la_data_out[94] la_data_out[95] la_data_out[96]
+ la_data_out[97] la_data_out[98] la_data_out[99] la_data_out[9] m_wb_rst_i[0] m_wb_rst_i[10]
+ m_wb_rst_i[1] m_wb_rst_i[2] m_wb_rst_i[3] m_wb_rst_i[4] m_wb_rst_i[5] m_wb_rst_i[6]
+ m_wb_rst_i[7] m_wb_rst_i[8] m_wb_rst_i[9] m_wbs_ack_o[0] m_wbs_ack_o[10] m_wbs_ack_o[1]
+ m_wbs_ack_o[2] m_wbs_ack_o[3] m_wbs_ack_o[4] m_wbs_ack_o[5] m_wbs_ack_o[6] m_wbs_ack_o[7]
+ m_wbs_ack_o[8] m_wbs_ack_o[9] m_wbs_dat_o_0[0] m_wbs_dat_o_0[10] m_wbs_dat_o_0[11]
+ m_wbs_dat_o_0[12] m_wbs_dat_o_0[13] m_wbs_dat_o_0[14] m_wbs_dat_o_0[15] m_wbs_dat_o_0[16]
+ m_wbs_dat_o_0[17] m_wbs_dat_o_0[18] m_wbs_dat_o_0[19] m_wbs_dat_o_0[1] m_wbs_dat_o_0[20]
+ m_wbs_dat_o_0[21] m_wbs_dat_o_0[22] m_wbs_dat_o_0[23] m_wbs_dat_o_0[24] m_wbs_dat_o_0[25]
+ m_wbs_dat_o_0[26] m_wbs_dat_o_0[27] m_wbs_dat_o_0[28] m_wbs_dat_o_0[29] m_wbs_dat_o_0[2]
+ m_wbs_dat_o_0[30] m_wbs_dat_o_0[31] m_wbs_dat_o_0[3] m_wbs_dat_o_0[4] m_wbs_dat_o_0[5]
+ m_wbs_dat_o_0[6] m_wbs_dat_o_0[7] m_wbs_dat_o_0[8] m_wbs_dat_o_0[9] m_wbs_dat_o_10[0]
+ m_wbs_dat_o_10[10] m_wbs_dat_o_10[11] m_wbs_dat_o_10[12] m_wbs_dat_o_10[13] m_wbs_dat_o_10[14]
+ m_wbs_dat_o_10[15] m_wbs_dat_o_10[16] m_wbs_dat_o_10[17] m_wbs_dat_o_10[18] m_wbs_dat_o_10[19]
+ m_wbs_dat_o_10[1] m_wbs_dat_o_10[20] m_wbs_dat_o_10[21] m_wbs_dat_o_10[22] m_wbs_dat_o_10[23]
+ m_wbs_dat_o_10[24] m_wbs_dat_o_10[25] m_wbs_dat_o_10[26] m_wbs_dat_o_10[27] m_wbs_dat_o_10[28]
+ m_wbs_dat_o_10[29] m_wbs_dat_o_10[2] m_wbs_dat_o_10[30] m_wbs_dat_o_10[31] m_wbs_dat_o_10[3]
+ m_wbs_dat_o_10[4] m_wbs_dat_o_10[5] m_wbs_dat_o_10[6] m_wbs_dat_o_10[7] m_wbs_dat_o_10[8]
+ m_wbs_dat_o_10[9] m_wbs_dat_o_1[0] m_wbs_dat_o_1[10] m_wbs_dat_o_1[11] m_wbs_dat_o_1[12]
+ m_wbs_dat_o_1[13] m_wbs_dat_o_1[14] m_wbs_dat_o_1[15] m_wbs_dat_o_1[16] m_wbs_dat_o_1[17]
+ m_wbs_dat_o_1[18] m_wbs_dat_o_1[19] m_wbs_dat_o_1[1] m_wbs_dat_o_1[20] m_wbs_dat_o_1[21]
+ m_wbs_dat_o_1[22] m_wbs_dat_o_1[23] m_wbs_dat_o_1[24] m_wbs_dat_o_1[25] m_wbs_dat_o_1[26]
+ m_wbs_dat_o_1[27] m_wbs_dat_o_1[28] m_wbs_dat_o_1[29] m_wbs_dat_o_1[2] m_wbs_dat_o_1[30]
+ m_wbs_dat_o_1[31] m_wbs_dat_o_1[3] m_wbs_dat_o_1[4] m_wbs_dat_o_1[5] m_wbs_dat_o_1[6]
+ m_wbs_dat_o_1[7] m_wbs_dat_o_1[8] m_wbs_dat_o_1[9] m_wbs_dat_o_2[0] m_wbs_dat_o_2[10]
+ m_wbs_dat_o_2[11] m_wbs_dat_o_2[12] m_wbs_dat_o_2[13] m_wbs_dat_o_2[14] m_wbs_dat_o_2[15]
+ m_wbs_dat_o_2[16] m_wbs_dat_o_2[17] m_wbs_dat_o_2[18] m_wbs_dat_o_2[19] m_wbs_dat_o_2[1]
+ m_wbs_dat_o_2[20] m_wbs_dat_o_2[21] m_wbs_dat_o_2[22] m_wbs_dat_o_2[23] m_wbs_dat_o_2[24]
+ m_wbs_dat_o_2[25] m_wbs_dat_o_2[26] m_wbs_dat_o_2[27] m_wbs_dat_o_2[28] m_wbs_dat_o_2[29]
+ m_wbs_dat_o_2[2] m_wbs_dat_o_2[30] m_wbs_dat_o_2[31] m_wbs_dat_o_2[3] m_wbs_dat_o_2[4]
+ m_wbs_dat_o_2[5] m_wbs_dat_o_2[6] m_wbs_dat_o_2[7] m_wbs_dat_o_2[8] m_wbs_dat_o_2[9]
+ m_wbs_dat_o_3[0] m_wbs_dat_o_3[10] m_wbs_dat_o_3[11] m_wbs_dat_o_3[12] m_wbs_dat_o_3[13]
+ m_wbs_dat_o_3[14] m_wbs_dat_o_3[15] m_wbs_dat_o_3[16] m_wbs_dat_o_3[17] m_wbs_dat_o_3[18]
+ m_wbs_dat_o_3[19] m_wbs_dat_o_3[1] m_wbs_dat_o_3[20] m_wbs_dat_o_3[21] m_wbs_dat_o_3[22]
+ m_wbs_dat_o_3[23] m_wbs_dat_o_3[24] m_wbs_dat_o_3[25] m_wbs_dat_o_3[26] m_wbs_dat_o_3[27]
+ m_wbs_dat_o_3[28] m_wbs_dat_o_3[29] m_wbs_dat_o_3[2] m_wbs_dat_o_3[30] m_wbs_dat_o_3[31]
+ m_wbs_dat_o_3[3] m_wbs_dat_o_3[4] m_wbs_dat_o_3[5] m_wbs_dat_o_3[6] m_wbs_dat_o_3[7]
+ m_wbs_dat_o_3[8] m_wbs_dat_o_3[9] m_wbs_dat_o_4[0] m_wbs_dat_o_4[10] m_wbs_dat_o_4[11]
+ m_wbs_dat_o_4[12] m_wbs_dat_o_4[13] m_wbs_dat_o_4[14] m_wbs_dat_o_4[15] m_wbs_dat_o_4[16]
+ m_wbs_dat_o_4[17] m_wbs_dat_o_4[18] m_wbs_dat_o_4[19] m_wbs_dat_o_4[1] m_wbs_dat_o_4[20]
+ m_wbs_dat_o_4[21] m_wbs_dat_o_4[22] m_wbs_dat_o_4[23] m_wbs_dat_o_4[24] m_wbs_dat_o_4[25]
+ m_wbs_dat_o_4[26] m_wbs_dat_o_4[27] m_wbs_dat_o_4[28] m_wbs_dat_o_4[29] m_wbs_dat_o_4[2]
+ m_wbs_dat_o_4[30] m_wbs_dat_o_4[31] m_wbs_dat_o_4[3] m_wbs_dat_o_4[4] m_wbs_dat_o_4[5]
+ m_wbs_dat_o_4[6] m_wbs_dat_o_4[7] m_wbs_dat_o_4[8] m_wbs_dat_o_4[9] m_wbs_dat_o_5[0]
+ m_wbs_dat_o_5[10] m_wbs_dat_o_5[11] m_wbs_dat_o_5[12] m_wbs_dat_o_5[13] m_wbs_dat_o_5[14]
+ m_wbs_dat_o_5[15] m_wbs_dat_o_5[16] m_wbs_dat_o_5[17] m_wbs_dat_o_5[18] m_wbs_dat_o_5[19]
+ m_wbs_dat_o_5[1] m_wbs_dat_o_5[20] m_wbs_dat_o_5[21] m_wbs_dat_o_5[22] m_wbs_dat_o_5[23]
+ m_wbs_dat_o_5[24] m_wbs_dat_o_5[25] m_wbs_dat_o_5[26] m_wbs_dat_o_5[27] m_wbs_dat_o_5[28]
+ m_wbs_dat_o_5[29] m_wbs_dat_o_5[2] m_wbs_dat_o_5[30] m_wbs_dat_o_5[31] m_wbs_dat_o_5[3]
+ m_wbs_dat_o_5[4] m_wbs_dat_o_5[5] m_wbs_dat_o_5[6] m_wbs_dat_o_5[7] m_wbs_dat_o_5[8]
+ m_wbs_dat_o_5[9] m_wbs_dat_o_6[0] m_wbs_dat_o_6[10] m_wbs_dat_o_6[11] m_wbs_dat_o_6[12]
+ m_wbs_dat_o_6[13] m_wbs_dat_o_6[14] m_wbs_dat_o_6[15] m_wbs_dat_o_6[16] m_wbs_dat_o_6[17]
+ m_wbs_dat_o_6[18] m_wbs_dat_o_6[19] m_wbs_dat_o_6[1] m_wbs_dat_o_6[20] m_wbs_dat_o_6[21]
+ m_wbs_dat_o_6[22] m_wbs_dat_o_6[23] m_wbs_dat_o_6[24] m_wbs_dat_o_6[25] m_wbs_dat_o_6[26]
+ m_wbs_dat_o_6[27] m_wbs_dat_o_6[28] m_wbs_dat_o_6[29] m_wbs_dat_o_6[2] m_wbs_dat_o_6[30]
+ m_wbs_dat_o_6[31] m_wbs_dat_o_6[3] m_wbs_dat_o_6[4] m_wbs_dat_o_6[5] m_wbs_dat_o_6[6]
+ m_wbs_dat_o_6[7] m_wbs_dat_o_6[8] m_wbs_dat_o_6[9] m_wbs_dat_o_7[0] m_wbs_dat_o_7[10]
+ m_wbs_dat_o_7[11] m_wbs_dat_o_7[12] m_wbs_dat_o_7[13] m_wbs_dat_o_7[14] m_wbs_dat_o_7[15]
+ m_wbs_dat_o_7[16] m_wbs_dat_o_7[17] m_wbs_dat_o_7[18] m_wbs_dat_o_7[19] m_wbs_dat_o_7[1]
+ m_wbs_dat_o_7[20] m_wbs_dat_o_7[21] m_wbs_dat_o_7[22] m_wbs_dat_o_7[23] m_wbs_dat_o_7[24]
+ m_wbs_dat_o_7[25] m_wbs_dat_o_7[26] m_wbs_dat_o_7[27] m_wbs_dat_o_7[28] m_wbs_dat_o_7[29]
+ m_wbs_dat_o_7[2] m_wbs_dat_o_7[30] m_wbs_dat_o_7[31] m_wbs_dat_o_7[3] m_wbs_dat_o_7[4]
+ m_wbs_dat_o_7[5] m_wbs_dat_o_7[6] m_wbs_dat_o_7[7] m_wbs_dat_o_7[8] m_wbs_dat_o_7[9]
+ m_wbs_dat_o_8[0] m_wbs_dat_o_8[10] m_wbs_dat_o_8[11] m_wbs_dat_o_8[12] m_wbs_dat_o_8[13]
+ m_wbs_dat_o_8[14] m_wbs_dat_o_8[15] m_wbs_dat_o_8[16] m_wbs_dat_o_8[17] m_wbs_dat_o_8[18]
+ m_wbs_dat_o_8[19] m_wbs_dat_o_8[1] m_wbs_dat_o_8[20] m_wbs_dat_o_8[21] m_wbs_dat_o_8[22]
+ m_wbs_dat_o_8[23] m_wbs_dat_o_8[24] m_wbs_dat_o_8[25] m_wbs_dat_o_8[26] m_wbs_dat_o_8[27]
+ m_wbs_dat_o_8[28] m_wbs_dat_o_8[29] m_wbs_dat_o_8[2] m_wbs_dat_o_8[30] m_wbs_dat_o_8[31]
+ m_wbs_dat_o_8[3] m_wbs_dat_o_8[4] m_wbs_dat_o_8[5] m_wbs_dat_o_8[6] m_wbs_dat_o_8[7]
+ m_wbs_dat_o_8[8] m_wbs_dat_o_8[9] m_wbs_dat_o_9[0] m_wbs_dat_o_9[10] m_wbs_dat_o_9[11]
+ m_wbs_dat_o_9[12] m_wbs_dat_o_9[13] m_wbs_dat_o_9[14] m_wbs_dat_o_9[15] m_wbs_dat_o_9[16]
+ m_wbs_dat_o_9[17] m_wbs_dat_o_9[18] m_wbs_dat_o_9[19] m_wbs_dat_o_9[1] m_wbs_dat_o_9[20]
+ m_wbs_dat_o_9[21] m_wbs_dat_o_9[22] m_wbs_dat_o_9[23] m_wbs_dat_o_9[24] m_wbs_dat_o_9[25]
+ m_wbs_dat_o_9[26] m_wbs_dat_o_9[27] m_wbs_dat_o_9[28] m_wbs_dat_o_9[29] m_wbs_dat_o_9[2]
+ m_wbs_dat_o_9[30] m_wbs_dat_o_9[31] m_wbs_dat_o_9[3] m_wbs_dat_o_9[4] m_wbs_dat_o_9[5]
+ m_wbs_dat_o_9[6] m_wbs_dat_o_9[7] m_wbs_dat_o_9[8] m_wbs_dat_o_9[9] m_wbs_stb_i[0]
+ m_wbs_stb_i[10] m_wbs_stb_i[1] m_wbs_stb_i[2] m_wbs_stb_i[3] m_wbs_stb_i[4] m_wbs_stb_i[5]
+ m_wbs_stb_i[6] m_wbs_stb_i[7] m_wbs_stb_i[8] m_wbs_stb_i[9] wb_clk_i wb_rst_i wbs_ack_o
+ wbs_adr_i[0] wbs_adr_i[10] wbs_adr_i[11] wbs_adr_i[12] wbs_adr_i[13] wbs_adr_i[14]
+ wbs_adr_i[15] wbs_adr_i[16] wbs_adr_i[17] wbs_adr_i[18] wbs_adr_i[19] wbs_adr_i[1]
+ wbs_adr_i[20] wbs_adr_i[21] wbs_adr_i[22] wbs_adr_i[23] wbs_adr_i[24] wbs_adr_i[25]
+ wbs_adr_i[26] wbs_adr_i[27] wbs_adr_i[28] wbs_adr_i[29] wbs_adr_i[2] wbs_adr_i[30]
+ wbs_adr_i[31] wbs_adr_i[3] wbs_adr_i[4] wbs_adr_i[5] wbs_adr_i[6] wbs_adr_i[7] wbs_adr_i[8]
+ wbs_adr_i[9] wbs_dat_o[0] wbs_dat_o[10] wbs_dat_o[11] wbs_dat_o[12] wbs_dat_o[13]
+ wbs_dat_o[14] wbs_dat_o[15] wbs_dat_o[16] wbs_dat_o[17] wbs_dat_o[18] wbs_dat_o[19]
+ wbs_dat_o[1] wbs_dat_o[20] wbs_dat_o[21] wbs_dat_o[22] wbs_dat_o[23] wbs_dat_o[24]
+ wbs_dat_o[25] wbs_dat_o[26] wbs_dat_o[27] wbs_dat_o[28] wbs_dat_o[29] wbs_dat_o[2]
+ wbs_dat_o[30] wbs_dat_o[31] wbs_dat_o[3] wbs_dat_o[4] wbs_dat_o[5] wbs_dat_o[6]
+ wbs_dat_o[7] wbs_dat_o[8] wbs_dat_o[9] wbs_stb_i vccd1 vssd1
XFILLER_100_127 vssd1 vssd1 vccd1 vccd1 sky130_fd_sc_hd__decap_12
XFILLER_36_19 vssd1 vssd1 vccd1 vccd1 sky130_fd_sc_hd__fill_2
XFILLER_55_726 vssd1 vssd1 vccd1 vccd1 sky130_fd_sc_hd__decap_12
XFILLER_23_612 vssd1 vssd1 vccd1 vccd1 sky130_fd_sc_hd__decap_12
XPHY_1707 vssd1 vccd1 sky130_fd_sc_hd__tapvpwrvgnd_1
XFILLER_11_807 vssd1 vssd1 vccd1 vccd1 sky130_fd_sc_hd__decap_12
XFILLER_23_645 vssd1 vssd1 vccd1 vccd1 sky130_fd_sc_hd__decap_8
XPHY_1729 vssd1 vccd1 sky130_fd_sc_hd__tapvpwrvgnd_1
XPHY_1718 vssd1 vccd1 sky130_fd_sc_hd__tapvpwrvgnd_1
XFILLER_50_453 vssd1 vssd1 vccd1 vccd1 sky130_fd_sc_hd__decap_3
XFILLER_136_514 vssd1 vssd1 vccd1 vccd1 sky130_fd_sc_hd__decap_4
XFILLER_136_569 vssd1 vssd1 vccd1 vccd1 sky130_fd_sc_hd__fill_1
XFILLER_124_709 vssd1 vssd1 vccd1 vccd1 sky130_fd_sc_hd__decap_12
XFILLER_117_750 vssd1 vssd1 vccd1 vccd1 sky130_fd_sc_hd__decap_12
XFILLER_117_783 vssd1 vssd1 vccd1 vccd1 sky130_fd_sc_hd__decap_12
XFILLER_104_400 vssd1 vssd1 vccd1 vccd1 sky130_fd_sc_hd__decap_12
XFILLER_89_111 vssd1 vssd1 vccd1 vccd1 sky130_fd_sc_hd__decap_12
XFILLER_2_538 vssd1 vssd1 vccd1 vccd1 sky130_fd_sc_hd__decap_12
XFILLER_132_742 vssd1 vssd1 vccd1 vccd1 sky130_fd_sc_hd__decap_12
XFILLER_117_66 vssd1 vssd1 vccd1 vccd1 sky130_fd_sc_hd__decap_12
XFILLER_89_144 vssd1 vssd1 vccd1 vccd1 sky130_fd_sc_hd__decap_6
XFILLER_117_99 vssd1 vssd1 vccd1 vccd1 sky130_fd_sc_hd__decap_12
XFILLER_77_306 vssd1 vssd1 vccd1 vccd1 sky130_fd_sc_hd__decap_8
XFILLER_77_339 vssd1 vssd1 vccd1 vccd1 sky130_fd_sc_hd__decap_12
XFILLER_133_87 vssd1 vssd1 vccd1 vccd1 sky130_fd_sc_hd__decap_12
XFILLER_85_372 vssd1 vssd1 vccd1 vccd1 sky130_fd_sc_hd__decap_12
XFILLER_73_534 vssd1 vssd1 vccd1 vccd1 sky130_fd_sc_hd__decap_8
XFILLER_45_225 vssd1 vssd1 vccd1 vccd1 sky130_fd_sc_hd__decap_12
XFILLER_73_567 vssd1 vssd1 vccd1 vccd1 sky130_fd_sc_hd__decap_12
X_501_ _484_/X _501_/A2 _485_/X _501_/B2 _500_/X vssd1 vssd1 vccd1 vccd1 _501_/X sky130_fd_sc_hd__a221o_1
XFILLER_45_258 vssd1 vssd1 vccd1 vccd1 sky130_fd_sc_hd__decap_12
X_432_ _430_/X _432_/A2 _431_/X _432_/B2 vssd1 vssd1 vccd1 vccd1 _432_/X sky130_fd_sc_hd__a22o_2
XFILLER_26_74 vssd1 vssd1 vccd1 vccd1 sky130_fd_sc_hd__decap_12
XFILLER_13_111 vssd1 vssd1 vccd1 vccd1 sky130_fd_sc_hd__decap_12
XFILLER_26_494 vssd1 vssd1 vccd1 vccd1 sky130_fd_sc_hd__decap_12
XFILLER_41_420 vssd1 vssd1 vccd1 vccd1 sky130_fd_sc_hd__decap_8
XFILLER_13_144 vssd1 vssd1 vccd1 vccd1 sky130_fd_sc_hd__decap_12
X_363_ _348_/X _363_/A2 _349_/X _363_/B2 vssd1 vssd1 vccd1 vccd1 _363_/X sky130_fd_sc_hd__a22o_4
XFILLER_41_453 vssd1 vssd1 vccd1 vccd1 sky130_fd_sc_hd__decap_12
X_294_ _257_/X _294_/A2 _259_/X _294_/B2 vssd1 vssd1 vccd1 vccd1 _294_/X sky130_fd_sc_hd__a22o_2
XFILLER_41_486 vssd1 vssd1 vccd1 vccd1 sky130_fd_sc_hd__decap_12
XFILLER_42_51 vssd1 vssd1 vccd1 vccd1 sky130_fd_sc_hd__decap_6
XFILLER_6_811 vssd1 vssd1 vccd1 vccd1 sky130_fd_sc_hd__decap_6
XFILLER_115_709 vssd1 vssd1 vccd1 vccd1 sky130_fd_sc_hd__decap_4
XFILLER_114_208 vssd1 vssd1 vccd1 vccd1 sky130_fd_sc_hd__decap_12
XFILLER_107_282 vssd1 vssd1 vccd1 vccd1 sky130_fd_sc_hd__decap_12
XFILLER_122_241 vssd1 vssd1 vccd1 vccd1 sky130_fd_sc_hd__decap_12
XFILLER_69_807 vssd1 vssd1 vccd1 vccd1 sky130_fd_sc_hd__decap_12
XFILLER_110_436 vssd1 vssd1 vccd1 vccd1 sky130_fd_sc_hd__decap_12
XFILLER_110_469 vssd1 vssd1 vccd1 vccd1 sky130_fd_sc_hd__decap_12
XFILLER_76_394 vssd1 vssd1 vccd1 vccd1 sky130_fd_sc_hd__decap_4
XFILLER_37_726 vssd1 vssd1 vccd1 vccd1 sky130_fd_sc_hd__decap_12
XFILLER_118_514 vssd1 vssd1 vccd1 vccd1 sky130_fd_sc_hd__decap_12
XFILLER_9_693 vssd1 vssd1 vccd1 vccd1 sky130_fd_sc_hd__decap_12
XFILLER_99_420 vssd1 vssd1 vccd1 vccd1 sky130_fd_sc_hd__decap_8
Xoutput467 _591_/HI vssd1 vssd1 vccd1 vccd1 io_oeb[28] sky130_fd_sc_hd__clkbuf_2
Xoutput456 _581_/HI vssd1 vssd1 vccd1 vccd1 io_oeb[18] sky130_fd_sc_hd__clkbuf_2
Xoutput478 _566_/HI vssd1 vssd1 vccd1 vccd1 io_oeb[3] sky130_fd_sc_hd__clkbuf_2
XFILLER_114_742 vssd1 vssd1 vccd1 vccd1 sky130_fd_sc_hd__decap_12
XFILLER_99_453 vssd1 vssd1 vccd1 vccd1 sky130_fd_sc_hd__decap_12
Xoutput489 _617_/X vssd1 vssd1 vccd1 vccd1 io_out[13] sky130_fd_sc_hd__clkbuf_2
XFILLER_99_486 vssd1 vssd1 vccd1 vccd1 sky130_fd_sc_hd__decap_4
XFILLER_59_306 vssd1 vssd1 vccd1 vccd1 sky130_fd_sc_hd__decap_8
XINSDIODE4_7 _640_/A vssd1 vssd1 vccd1 vccd1 sky130_fd_sc_hd__diode_2
XFILLER_59_339 vssd1 vssd1 vccd1 vccd1 sky130_fd_sc_hd__decap_12
XFILLER_95_681 vssd1 vssd1 vccd1 vccd1 sky130_fd_sc_hd__decap_12
XFILLER_67_372 vssd1 vssd1 vccd1 vccd1 sky130_fd_sc_hd__decap_12
XFILLER_27_258 vssd1 vssd1 vccd1 vccd1 sky130_fd_sc_hd__decap_12
XFILLER_55_567 vssd1 vssd1 vccd1 vccd1 sky130_fd_sc_hd__decap_4
XFILLER_82_375 vssd1 vssd1 vccd1 vccd1 sky130_fd_sc_hd__fill_2
XFILLER_70_526 vssd1 vssd1 vccd1 vccd1 sky130_fd_sc_hd__decap_12
XFILLER_63_17 vssd1 vssd1 vccd1 vccd1 sky130_fd_sc_hd__decap_12
XPHY_2216 vssd1 vccd1 sky130_fd_sc_hd__tapvpwrvgnd_1
XPHY_2205 vssd1 vccd1 sky130_fd_sc_hd__tapvpwrvgnd_1
XPHY_905 vssd1 vccd1 sky130_fd_sc_hd__tapvpwrvgnd_1
XPHY_916 vssd1 vccd1 sky130_fd_sc_hd__tapvpwrvgnd_1
XPHY_927 vssd1 vccd1 sky130_fd_sc_hd__tapvpwrvgnd_1
XPHY_2249 vssd1 vccd1 sky130_fd_sc_hd__tapvpwrvgnd_1
XPHY_2238 vssd1 vccd1 sky130_fd_sc_hd__tapvpwrvgnd_1
XPHY_2227 vssd1 vccd1 sky130_fd_sc_hd__tapvpwrvgnd_1
XPHY_1515 vssd1 vccd1 sky130_fd_sc_hd__tapvpwrvgnd_1
XPHY_1504 vssd1 vccd1 sky130_fd_sc_hd__tapvpwrvgnd_1
XFILLER_23_453 vssd1 vssd1 vccd1 vccd1 sky130_fd_sc_hd__decap_12
XPHY_938 vssd1 vccd1 sky130_fd_sc_hd__tapvpwrvgnd_1
XPHY_949 vssd1 vccd1 sky130_fd_sc_hd__tapvpwrvgnd_1
XFILLER_51_762 vssd1 vssd1 vccd1 vccd1 sky130_fd_sc_hd__decap_8
XPHY_1537 vssd1 vccd1 sky130_fd_sc_hd__tapvpwrvgnd_1
XPHY_1548 vssd1 vccd1 sky130_fd_sc_hd__tapvpwrvgnd_1
XPHY_1526 vssd1 vccd1 sky130_fd_sc_hd__tapvpwrvgnd_1
XFILLER_23_486 vssd1 vssd1 vccd1 vccd1 sky130_fd_sc_hd__decap_4
XFILLER_51_795 vssd1 vssd1 vccd1 vccd1 sky130_fd_sc_hd__decap_12
XFILLER_137_812 vssd1 vssd1 vccd1 vccd1 sky130_fd_sc_hd__decap_4
XPHY_1559 vssd1 vccd1 sky130_fd_sc_hd__tapvpwrvgnd_1
XFILLER_12_54 vssd1 vssd1 vccd1 vccd1 sky130_fd_sc_hd__decap_3
XFILLER_117_591 vssd1 vssd1 vccd1 vccd1 sky130_fd_sc_hd__decap_8
XFILLER_88_58 vssd1 vssd1 vccd1 vccd1 sky130_fd_sc_hd__decap_12
XFILLER_104_241 vssd1 vssd1 vccd1 vccd1 sky130_fd_sc_hd__decap_12
XFILLER_2_379 vssd1 vssd1 vccd1 vccd1 sky130_fd_sc_hd__decap_12
XFILLER_120_778 vssd1 vssd1 vccd1 vccd1 sky130_fd_sc_hd__decap_12
XFILLER_92_106 vssd1 vssd1 vccd1 vccd1 sky130_fd_sc_hd__decap_8
XFILLER_92_139 vssd1 vssd1 vccd1 vccd1 sky130_fd_sc_hd__decap_12
XFILLER_58_361 vssd1 vssd1 vccd1 vccd1 sky130_fd_sc_hd__decap_12
XFILLER_19_726 vssd1 vssd1 vccd1 vccd1 sky130_fd_sc_hd__decap_12
XFILLER_85_180 vssd1 vssd1 vccd1 vccd1 sky130_fd_sc_hd__decap_12
XFILLER_42_740 vssd1 vssd1 vccd1 vccd1 sky130_fd_sc_hd__fill_1
X_415_ _406_/X _415_/A2 _407_/X _415_/B2 _414_/X vssd1 vssd1 vccd1 vccd1 _415_/X sky130_fd_sc_hd__a221o_2
X_346_ _316_/X _346_/A2 _341_/X _343_/X _345_/X vssd1 vssd1 vccd1 vccd1 _346_/X sky130_fd_sc_hd__a2111o_4
XFILLER_128_823 vssd1 vssd1 vccd1 vccd1 sky130_fd_sc_hd__decap_3
XFILLER_41_294 vssd1 vssd1 vccd1 vccd1 sky130_fd_sc_hd__decap_12
XFILLER_127_311 vssd1 vssd1 vccd1 vccd1 sky130_fd_sc_hd__decap_3
X_277_ _312_/A vssd1 vssd1 vccd1 vccd1 _554_/C sky130_fd_sc_hd__buf_8
XFILLER_6_652 vssd1 vssd1 vccd1 vccd1 sky130_fd_sc_hd__decap_12
XFILLER_6_685 vssd1 vssd1 vccd1 vccd1 sky130_fd_sc_hd__decap_12
XFILLER_96_412 vssd1 vssd1 vccd1 vccd1 sky130_fd_sc_hd__decap_12
XFILLER_69_648 vssd1 vssd1 vccd1 vccd1 sky130_fd_sc_hd__decap_8
XFILLER_84_607 vssd1 vssd1 vccd1 vccd1 sky130_fd_sc_hd__decap_12
XFILLER_110_277 vssd1 vssd1 vccd1 vccd1 sky130_fd_sc_hd__decap_8
XFILLER_77_681 vssd1 vssd1 vccd1 vccd1 sky130_fd_sc_hd__decap_12
XFILLER_37_534 vssd1 vssd1 vccd1 vccd1 sky130_fd_sc_hd__decap_8
XFILLER_49_372 vssd1 vssd1 vccd1 vccd1 sky130_fd_sc_hd__decap_12
XFILLER_92_640 vssd1 vssd1 vccd1 vccd1 sky130_fd_sc_hd__decap_12
XFILLER_37_567 vssd1 vssd1 vccd1 vccd1 sky130_fd_sc_hd__decap_12
XFILLER_33_762 vssd1 vssd1 vccd1 vccd1 sky130_fd_sc_hd__decap_8
XFILLER_20_412 vssd1 vssd1 vccd1 vccd1 sky130_fd_sc_hd__decap_12
XFILLER_32_283 vssd1 vssd1 vccd1 vccd1 sky130_fd_sc_hd__fill_2
XFILLER_118_322 vssd1 vssd1 vccd1 vccd1 sky130_fd_sc_hd__decap_12
XFILLER_118_355 vssd1 vssd1 vccd1 vccd1 sky130_fd_sc_hd__decap_12
XFILLER_114_550 vssd1 vssd1 vccd1 vccd1 sky130_fd_sc_hd__decap_12
XFILLER_0_828 vssd1 vssd1 vccd1 vccd1 sky130_fd_sc_hd__decap_4
XFILLER_114_583 vssd1 vssd1 vccd1 vccd1 sky130_fd_sc_hd__decap_12
XFILLER_99_294 vssd1 vssd1 vccd1 vccd1 sky130_fd_sc_hd__decap_12
XINSDIODE2_4 _384_/X vssd1 vssd1 vccd1 vccd1 sky130_fd_sc_hd__diode_2
XFILLER_102_778 vssd1 vssd1 vccd1 vccd1 sky130_fd_sc_hd__decap_12
XFILLER_74_139 vssd1 vssd1 vccd1 vccd1 sky130_fd_sc_hd__decap_12
XFILLER_74_106 vssd1 vssd1 vccd1 vccd1 sky130_fd_sc_hd__decap_8
XFILLER_67_180 vssd1 vssd1 vccd1 vccd1 sky130_fd_sc_hd__decap_12
XFILLER_82_172 vssd1 vssd1 vccd1 vccd1 sky130_fd_sc_hd__decap_12
XFILLER_70_334 vssd1 vssd1 vccd1 vccd1 sky130_fd_sc_hd__decap_8
XPHY_702 vssd1 vccd1 sky130_fd_sc_hd__tapvpwrvgnd_1
XPHY_2035 vssd1 vccd1 sky130_fd_sc_hd__tapvpwrvgnd_1
XPHY_2013 vssd1 vccd1 sky130_fd_sc_hd__tapvpwrvgnd_1
XPHY_2024 vssd1 vccd1 sky130_fd_sc_hd__tapvpwrvgnd_1
XPHY_2002 vssd1 vccd1 sky130_fd_sc_hd__tapvpwrvgnd_1
XPHY_713 vssd1 vccd1 sky130_fd_sc_hd__tapvpwrvgnd_1
XPHY_724 vssd1 vccd1 sky130_fd_sc_hd__tapvpwrvgnd_1
XPHY_735 vssd1 vccd1 sky130_fd_sc_hd__tapvpwrvgnd_1
XPHY_2068 vssd1 vccd1 sky130_fd_sc_hd__tapvpwrvgnd_1
XPHY_2057 vssd1 vccd1 sky130_fd_sc_hd__tapvpwrvgnd_1
XPHY_2046 vssd1 vccd1 sky130_fd_sc_hd__tapvpwrvgnd_1
XPHY_1323 vssd1 vccd1 sky130_fd_sc_hd__tapvpwrvgnd_1
XPHY_1312 vssd1 vccd1 sky130_fd_sc_hd__tapvpwrvgnd_1
XPHY_1301 vssd1 vccd1 sky130_fd_sc_hd__tapvpwrvgnd_1
XFILLER_11_412 vssd1 vssd1 vccd1 vccd1 sky130_fd_sc_hd__decap_12
XPHY_746 vssd1 vccd1 sky130_fd_sc_hd__tapvpwrvgnd_1
XPHY_757 vssd1 vccd1 sky130_fd_sc_hd__tapvpwrvgnd_1
XPHY_768 vssd1 vccd1 sky130_fd_sc_hd__tapvpwrvgnd_1
XFILLER_51_570 vssd1 vssd1 vccd1 vccd1 sky130_fd_sc_hd__decap_12
XPHY_2079 vssd1 vccd1 sky130_fd_sc_hd__tapvpwrvgnd_1
XPHY_1345 vssd1 vccd1 sky130_fd_sc_hd__tapvpwrvgnd_1
XPHY_1356 vssd1 vccd1 sky130_fd_sc_hd__tapvpwrvgnd_1
XPHY_1334 vssd1 vccd1 sky130_fd_sc_hd__tapvpwrvgnd_1
XFILLER_23_42 vssd1 vssd1 vccd1 vccd1 sky130_fd_sc_hd__decap_12
XPHY_779 vssd1 vccd1 sky130_fd_sc_hd__tapvpwrvgnd_1
XPHY_1389 vssd1 vccd1 sky130_fd_sc_hd__tapvpwrvgnd_1
XPHY_1378 vssd1 vccd1 sky130_fd_sc_hd__tapvpwrvgnd_1
XPHY_1367 vssd1 vccd1 sky130_fd_sc_hd__tapvpwrvgnd_1
XFILLER_137_675 vssd1 vssd1 vccd1 vccd1 sky130_fd_sc_hd__decap_4
XFILLER_136_152 vssd1 vssd1 vccd1 vccd1 sky130_fd_sc_hd__decap_4
XFILLER_3_600 vssd1 vssd1 vccd1 vccd1 sky130_fd_sc_hd__decap_12
XFILLER_105_572 vssd1 vssd1 vccd1 vccd1 sky130_fd_sc_hd__decap_12
XFILLER_78_412 vssd1 vssd1 vccd1 vccd1 sky130_fd_sc_hd__decap_12
XFILLER_2_165 vssd1 vssd1 vccd1 vccd1 sky130_fd_sc_hd__decap_6
XFILLER_66_607 vssd1 vssd1 vccd1 vccd1 sky130_fd_sc_hd__decap_12
XFILLER_59_681 vssd1 vssd1 vccd1 vccd1 sky130_fd_sc_hd__decap_12
XFILLER_17_9 vssd1 vssd1 vccd1 vccd1 sky130_fd_sc_hd__decap_12
XFILLER_48_94 vssd1 vssd1 vccd1 vccd1 sky130_fd_sc_hd__decap_12
XFILLER_74_640 vssd1 vssd1 vccd1 vccd1 sky130_fd_sc_hd__decap_12
XFILLER_19_534 vssd1 vssd1 vccd1 vccd1 sky130_fd_sc_hd__decap_8
XFILLER_62_835 vssd1 vssd1 vccd1 vccd1 sky130_fd_sc_hd__decap_6
XFILLER_34_526 vssd1 vssd1 vccd1 vccd1 sky130_fd_sc_hd__decap_12
XFILLER_64_82 vssd1 vssd1 vccd1 vccd1 sky130_fd_sc_hd__decap_12
XFILLER_15_762 vssd1 vssd1 vccd1 vccd1 sky130_fd_sc_hd__decap_8
XFILLER_15_795 vssd1 vssd1 vccd1 vccd1 sky130_fd_sc_hd__decap_12
XFILLER_30_721 vssd1 vssd1 vccd1 vccd1 sky130_fd_sc_hd__decap_12
XFILLER_42_592 vssd1 vssd1 vccd1 vccd1 sky130_fd_sc_hd__decap_12
XFILLER_9_66 vssd1 vssd1 vccd1 vccd1 sky130_fd_sc_hd__decap_12
XFILLER_30_765 vssd1 vssd1 vccd1 vccd1 sky130_fd_sc_hd__decap_6
XFILLER_80_70 vssd1 vssd1 vccd1 vccd1 sky130_fd_sc_hd__decap_12
XFILLER_9_99 vssd1 vssd1 vccd1 vccd1 sky130_fd_sc_hd__decap_12
X_329_ _317_/X _329_/A2 _318_/X _329_/B2 vssd1 vssd1 vccd1 vccd1 _329_/X sky130_fd_sc_hd__a22o_4
XFILLER_128_664 vssd1 vssd1 vccd1 vccd1 sky130_fd_sc_hd__decap_12
XPHY_1890 vssd1 vccd1 sky130_fd_sc_hd__tapvpwrvgnd_1
XFILLER_128_697 vssd1 vssd1 vccd1 vccd1 sky130_fd_sc_hd__decap_12
XFILLER_131_807 vssd1 vssd1 vccd1 vccd1 sky130_fd_sc_hd__decap_12
XFILLER_6_493 vssd1 vssd1 vccd1 vccd1 sky130_fd_sc_hd__decap_12
XFILLER_96_220 vssd1 vssd1 vccd1 vccd1 sky130_fd_sc_hd__decap_8
Xrepeater712 _264_/X vssd1 vssd1 vccd1 vccd1 _310_/B1 sky130_fd_sc_hd__buf_8
XFILLER_96_253 vssd1 vssd1 vccd1 vccd1 sky130_fd_sc_hd__decap_12
XFILLER_96_286 vssd1 vssd1 vccd1 vccd1 sky130_fd_sc_hd__decap_12
Xrepeater723 _447_/A vssd1 vssd1 vccd1 vccd1 _488_/A sky130_fd_sc_hd__buf_8
Xrepeater734 _752_/A vssd1 vssd1 vccd1 vccd1 _751_/A sky130_fd_sc_hd__buf_8
XFILLER_56_106 vssd1 vssd1 vccd1 vccd1 sky130_fd_sc_hd__decap_8
XFILLER_56_128 vssd1 vssd1 vccd1 vccd1 sky130_fd_sc_hd__decap_12
XFILLER_84_448 vssd1 vssd1 vccd1 vccd1 sky130_fd_sc_hd__decap_8
XFILLER_92_481 vssd1 vssd1 vccd1 vccd1 sky130_fd_sc_hd__decap_12
XFILLER_64_172 vssd1 vssd1 vccd1 vccd1 sky130_fd_sc_hd__decap_12
XFILLER_80_676 vssd1 vssd1 vccd1 vccd1 sky130_fd_sc_hd__decap_8
XFILLER_52_367 vssd1 vssd1 vccd1 vccd1 sky130_fd_sc_hd__decap_12
XFILLER_100_58 vssd1 vssd1 vccd1 vccd1 sky130_fd_sc_hd__decap_12